Version 4
SHEET 1 1380 708
WIRE 224 32 224 -32
WIRE 16 160 -192 160
WIRE 224 160 224 112
WIRE 224 160 208 160
WIRE -192 224 -192 160
WIRE -592 240 -592 208
WIRE 16 256 -16 256
WIRE 400 256 208 256
WIRE 400 272 400 256
WIRE 352 368 304 368
WIRE 400 368 400 336
WIRE 400 368 352 368
WIRE 448 368 400 368
WIRE 512 368 448 368
WIRE -192 432 -192 304
WIRE -16 432 -16 256
WIRE -16 432 -192 432
WIRE 96 432 -16 432
WIRE 448 432 448 368
WIRE 352 448 352 368
WIRE 352 576 352 512
WIRE 448 576 448 512
FLAG -592 320 0
FLAG -592 208 Vcc
FLAG 224 -32 Vcc
FLAG 352 576 0
FLAG 448 576 0
FLAG 96 432 0
SYMBOL voltage -192 208 R0
WINDOW 123 0 0 Left 0
WINDOW 39 0 0 Left 0
SYMATTR InstName VEngine
SYMATTR Value PULSE(0 20000 0 0 0 .000000001 .015 10)
SYMBOL voltage -592 224 R0
WINDOW 123 0 0 Left 0
WINDOW 39 0 0 Left 0
SYMATTR InstName V2
SYMATTR Value 3.3
SYMBOL res 208 16 R0
SYMATTR InstName R1
SYMATTR Value 100k
SYMBOL cap 336 448 R0
SYMATTR InstName C1
SYMATTR Value 680p
SYMBOL diode 384 272 R0
SYMATTR InstName D1
SYMBOL res 432 416 R0
SYMATTR InstName R2
SYMATTR Value 2Meg
SYMATTR SpiceLine pwr=.1
SYMBOL Optos\\PC817D 112 208 R0
SYMATTR InstName U3
TEXT -24 512 Left 2 !.tran .1
